1000.0 290.0  0.0
   1.0 290.001 0.0 0.0 0.0
1000.0 291.0   0.0 0.0 0.0
6000.0 296.0   0.0 0.0 0.0
